
**** 12/07/19 22:45:22 ****** PSpice 17.2.0 (March 2016) ****** ID# 0 ********

 ** Profile: "SCHEMATIC1-14_84"  [ D:\On Editing\Sophomore\VE215,Intro to Circuits\14_84-PSpiceFiles\SCHEMATIC1\14_84.sim ] 


 ****     CIRCUIT DESCRIPTION


******************************************************************************




** Creating circuit file "14_84.cir" 
** WARNING: THIS AUTOMATICALLY GENERATED FILE MAY BE OVERWRITTEN BY SUBSEQUENT SIMULATIONS

*Libraries: 
* Profile Libraries :
* Local Libraries :
* From [PSPICE NETLIST] section of E:\Cadence\SPB_Data\cdssetup\OrCAD_PSpice\17.2.0\PSpice.ini file:
.lib "nom.lib" 

*Analysis directives: 
.AC DEC 50 1 1.00k
.OPTIONS ADVCONV
.PROBE64 V(alias(*)) I(alias(*)) W(alias(*)) D(alias(*)) NOISE(alias(*)) 
.INC "..\SCHEMATIC1.net" 



**** INCLUDING SCHEMATIC1.net ****
* source 14_84
V_V1         N00123 0 DC 0Vdc AC 1Vac 0
R_R1         N00123 N00130  4k TC=0,0 
C_C1         N00130 N00134  1u  TC=0,0 
R_R2         0 N00134  1k TC=0,0 

**** RESUMING 14_84.cir ****
.END

**** 12/07/19 22:45:22 ****** PSpice 17.2.0 (March 2016) ****** ID# 0 ********

 ** Profile: "SCHEMATIC1-14_84"  [ D:\On Editing\Sophomore\VE215,Intro to Circuits\14_84-PSpiceFiles\SCHEMATIC1\14_84.sim ] 


 ****     SMALL SIGNAL BIAS SOLUTION       TEMPERATURE =   27.000 DEG C


******************************************************************************



 NODE   VOLTAGE     NODE   VOLTAGE     NODE   VOLTAGE     NODE   VOLTAGE


(N00123)    0.0000 (N00130)    0.0000 (N00134)    0.0000 




    VOLTAGE SOURCE CURRENTS
    NAME         CURRENT

    V_V1         0.000E+00

    TOTAL POWER DISSIPATION   0.00E+00  WATTS



          JOB CONCLUDED

**** 12/07/19 22:45:22 ****** PSpice 17.2.0 (March 2016) ****** ID# 0 ********

 ** Profile: "SCHEMATIC1-14_84"  [ D:\On Editing\Sophomore\VE215,Intro to Circuits\14_84-PSpiceFiles\SCHEMATIC1\14_84.sim ] 


 ****     JOB STATISTICS SUMMARY


******************************************************************************



  License check-out time            =        1.08
  Total job time (using Solver 1)   =         .02
