
**** 10/21/19 00:11:09 ****** PSpice 17.2.0 (March 2016) ****** ID# 0 ********

 ** Profile: "SCHEMATIC1-7_78"  [ D:\On Editing\Sophomore\VE215,Intro to Circuits\7_78-PSpiceFiles\SCHEMATIC1\7_78.sim ] 


 ****     CIRCUIT DESCRIPTION


******************************************************************************




** Creating circuit file "7_78.cir" 
** WARNING: THIS AUTOMATICALLY GENERATED FILE MAY BE OVERWRITTEN BY SUBSEQUENT SIMULATIONS

*Libraries: 
* Profile Libraries :
* Local Libraries :
* From [PSPICE NETLIST] section of E:\Cadence\SPB_Data\cdssetup\OrCAD_PSpice\17.2.0\PSpice.ini file:
.lib "nom.lib" 

*Analysis directives: 
.TRAN  0 2 0 
.OPTIONS ADVCONV
.PROBE64 V(alias(*)) I(alias(*)) W(alias(*)) D(alias(*)) NOISE(alias(*)) 
.INC "..\SCHEMATIC1.net" 



**** INCLUDING SCHEMATIC1.net ****
* source 7_78
V_V1         N00142 N00170 108Vdc
R_R1         N00142 N00149  3 TC=0,0 
R_R2         N00149 N00170  6 TC=0,0 
R_R3         N00149 N00153  4 TC=0,0 
L_L1         N00170 N00153  2 IC=7.714 

**** RESUMING 7_78.cir ****
.END

ERROR(ORPSIM-15142): Node N00142 is floating

ERROR(ORPSIM-15142): Node N00170 is floating

ERROR(ORPSIM-15142): Node N00149 is floating

ERROR(ORPSIM-15142): Node N00153 is floating
