
**** 09/29/19 23:26:39 ****** PSpice 17.2.0 (March 2016) ****** ID# 0 ********

 ** Profile: "SCHEMATIC1-4_78"  [ D:\On Editing\Sophomore\VE215,Intro to Circuits\4_78-PSpiceFiles\SCHEMATIC1\4_78.sim ] 


 ****     CIRCUIT DESCRIPTION


******************************************************************************




** Creating circuit file "4_78.cir" 
** WARNING: THIS AUTOMATICALLY GENERATED FILE MAY BE OVERWRITTEN BY SUBSEQUENT SIMULATIONS

*Libraries: 
* Profile Libraries :
* Local Libraries :
* From [PSPICE NETLIST] section of E:\Cadence\SPB_Data\cdssetup\OrCAD_PSpice\17.2.0\PSpice.ini file:
.lib "nom.lib" 

*Analysis directives: 
.DC LIN I_I1 0 0.1 0.0001 
.OPTIONS ADVCONV
.PROBE64 V(alias(*)) I(alias(*)) W(alias(*)) D(alias(*)) NOISE(alias(*)) 
.INC "..\SCHEMATIC1.net" 



**** INCLUDING SCHEMATIC1.net ****
* source 4_78
V_V1         N00067 0 6Vdc
R_R1         N00067 N00211  3k TC=0,0 
X_F1    N00211 0 N00378 0 SCHEMATIC1_F1 
R_R2         N00378 0  2k TC=0,0 
I_I1         0 N00378 DC 0Adc  

.subckt SCHEMATIC1_F1 1 2 3 4  
F_F1         3 4 VF_F1 20
VF_F1         1 2 0V
.ends SCHEMATIC1_F1

**** RESUMING 4_78.cir ****
.END


          JOB CONCLUDED

**** 09/29/19 23:26:39 ****** PSpice 17.2.0 (March 2016) ****** ID# 0 ********

 ** Profile: "SCHEMATIC1-4_78"  [ D:\On Editing\Sophomore\VE215,Intro to Circuits\4_78-PSpiceFiles\SCHEMATIC1\4_78.sim ] 


 ****     JOB STATISTICS SUMMARY


******************************************************************************



  License check-out time            =         .66
  Total job time (using Solver 1)   =        0.00
