
**** 10/30/19 09:28:52 ****** PSpice 17.2.0 (March 2016) ****** ID# 0 ********

 ** Profile: "SCHEMATIC1-Lab2"  [ D:\On Editing\Sophomore\VE215,Intro to Circuits\Lab2\Lab2-PSpiceFiles\SCHEMATIC1\Lab2.sim ] 


 ****     CIRCUIT DESCRIPTION


******************************************************************************




** Creating circuit file "Lab2.cir" 
** WARNING: THIS AUTOMATICALLY GENERATED FILE MAY BE OVERWRITTEN BY SUBSEQUENT SIMULATIONS

*Libraries: 
* Profile Libraries :
* Local Libraries :
* From [PSPICE NETLIST] section of E:\Cadence\SPB_Data\cdssetup\OrCAD_PSpice\17.2.0\PSpice.ini file:
.lib "nom.lib" 

*Analysis directives: 
.DC LIN V_V1 0 1 0.1 
.OPTIONS ADVCONV
.PROBE64 V(alias(*)) I(alias(*)) W(alias(*)) D(alias(*)) NOISE(alias(*)) 
.INC "..\SCHEMATIC1.net" 



**** INCLUDING SCHEMATIC1.net ****
* source LAB2
R_R1         N00159 N00170  49.9 TC=0,0 
X_U1         0 N00170 V+ V- N00212 LM741
R_RF         N00170 N00212  99.9 TC=0,0 
R_R2         0 N00212  1k TC=0,0 
V_V1         N00159 0 1

**** RESUMING Lab2.cir ****
.END

**** 10/30/19 09:28:52 ****** PSpice 17.2.0 (March 2016) ****** ID# 0 ********

 ** Profile: "SCHEMATIC1-Lab2"  [ D:\On Editing\Sophomore\VE215,Intro to Circuits\Lab2\Lab2-PSpiceFiles\SCHEMATIC1\Lab2.sim ] 


 ****     Diode MODEL PARAMETERS


******************************************************************************




               X_U1.x_lm741.dx X_U1.x_lm741.dy 
          IS  800.000000E-18  800.000000E-18 
          RS    1               1.000000E-03 
         CJO                   10.000000E-12 


**** 10/30/19 09:28:52 ****** PSpice 17.2.0 (March 2016) ****** ID# 0 ********

 ** Profile: "SCHEMATIC1-Lab2"  [ D:\On Editing\Sophomore\VE215,Intro to Circuits\Lab2\Lab2-PSpiceFiles\SCHEMATIC1\Lab2.sim ] 


 ****     BJT MODEL PARAMETERS


******************************************************************************




               X_U1.x_lm741.qx 
               NPN             
       LEVEL    1            
          IS  800.000000E-18 
          BF   93.75         
          NF    1            
          BR    1            
          NR    1            
         ISS    0            
          RE    0            
          RC    0            
         CJE    0            
         VJE     .75         
         CJC    0            
         VJC     .75         
         MJC     .33         
        XCJC    1            
         CJS    0            
         VJS     .75         
          KF    0            
          AF    1            
          CN    2.42         
           D     .87         



          JOB CONCLUDED

**** 10/30/19 09:28:52 ****** PSpice 17.2.0 (March 2016) ****** ID# 0 ********

 ** Profile: "SCHEMATIC1-Lab2"  [ D:\On Editing\Sophomore\VE215,Intro to Circuits\Lab2\Lab2-PSpiceFiles\SCHEMATIC1\Lab2.sim ] 


 ****     JOB STATISTICS SUMMARY


******************************************************************************



  License check-out time            =        1.00
  Total job time (using Solver 1)   =         .03
